<?xml version="1.0" encoding="UTF-8"?>

<!-- generated on 2024-01-30 09:54:22 by Eclipse SUMO netedit Version 1.19.0
<configuration xmlns:xsi="http://www.w3.org/2001/XMLSchema-instance" xsi:noNamespaceSchemaLocation="http://sumo.dlr.de/xsd/neteditConfiguration.xsd">

    <input>
        <sumo-net-file value="C:\Users\Administrator\Desktop\Id Roadway\Profit\SUMO\V1.net.xml"/>
    </input>

    <output>
        <output-file value="C:\Users\Administrator\Desktop\Id Roadway\Profit\SUMO\V1.net.xml"/>
    </output>

    <processing>
        <geometry.min-radius.fix.railways value="false"/>
        <geometry.max-grade.fix value="false"/>
        <offset.disable-normalization value="true"/>
        <lefthand value="0"/>
    </processing>

    <junctions>
        <no-turnarounds value="true"/>
        <junctions.corner-detail value="5"/>
        <junctions.limit-turn-speed value="5.50"/>
        <rectangular-lane-cut value="0"/>
    </junctions>

    <pedestrian>
        <walkingareas value="0"/>
    </pedestrian>

</configuration>
-->

<net version="1.16" junctionCornerDetail="5" limitTurnSpeed="5.50" xmlns:xsi="http://www.w3.org/2001/XMLSchema-instance" xsi:noNamespaceSchemaLocation="http://sumo.dlr.de/xsd/net_file.xsd">

    <location netOffset="0.00,0.00" convBoundary="0.00,0.00,1000.00,0.00" origBoundary="-10000000000.00,-10000000000.00,10000000000.00,10000000000.00" projParameter="!"/>

    <edge id=":J2_0" function="internal">
        <lane id=":J2_0_0" index="0" speed="25.00" length="0.10" shape="200.00,-14.40 200.00,-14.40"/>
        <lane id=":J2_0_1" index="1" speed="25.00" length="0.10" shape="200.00,-11.20 200.00,-11.20"/>
        <lane id=":J2_0_2" index="2" speed="25.00" length="0.10" shape="200.00,-8.00 200.00,-8.00"/>
        <lane id=":J2_0_3" index="3" speed="25.00" length="0.10" shape="200.00,-4.80 200.00,-4.80"/>
        <lane id=":J2_0_4" index="4" speed="25.00" length="0.10" shape="200.00,-1.60 200.00,-1.60"/>
    </edge>
    <edge id=":J3_0" function="internal">
        <lane id=":J3_0_0" index="0" speed="25.00" length="0.10" shape="400.00,-14.40 400.00,-14.40"/>
        <lane id=":J3_0_1" index="1" speed="25.00" length="0.10" shape="400.00,-11.20 400.00,-11.20"/>
        <lane id=":J3_0_2" index="2" speed="25.00" length="0.10" shape="400.00,-8.00 400.00,-8.00"/>
        <lane id=":J3_0_3" index="3" speed="25.00" length="0.10" shape="400.00,-4.80 400.00,-4.80"/>
        <lane id=":J3_0_4" index="4" speed="25.00" length="0.10" shape="400.00,-1.60 400.00,-1.60"/>
    </edge>
    <edge id=":J4_0" function="internal">
        <lane id=":J4_0_0" index="0" speed="25.00" length="0.10" shape="600.00,-14.40 600.00,-14.40"/>
        <lane id=":J4_0_1" index="1" speed="25.00" length="0.10" shape="600.00,-11.20 600.00,-11.20"/>
        <lane id=":J4_0_2" index="2" speed="25.00" length="0.10" shape="600.00,-8.00 600.00,-8.00"/>
        <lane id=":J4_0_3" index="3" speed="25.00" length="0.10" shape="600.00,-4.80 600.00,-4.80"/>
        <lane id=":J4_0_4" index="4" speed="25.00" length="0.10" shape="600.00,-1.60 600.00,-1.60"/>
    </edge>
    <edge id=":J5_0" function="internal">
        <lane id=":J5_0_0" index="0" speed="25.00" length="0.10" shape="800.00,-14.40 800.00,-14.40"/>
        <lane id=":J5_0_1" index="1" speed="25.00" length="0.10" shape="800.00,-11.20 800.00,-11.20"/>
        <lane id=":J5_0_2" index="2" speed="25.00" length="0.10" shape="800.00,-8.00 800.00,-8.00"/>
        <lane id=":J5_0_3" index="3" speed="25.00" length="0.10" shape="800.00,-4.80 800.00,-4.80"/>
        <lane id=":J5_0_4" index="4" speed="25.00" length="0.10" shape="800.00,-1.60 800.00,-1.60"/>
    </edge>

    <edge id="E0" from="J1" to="J2" priority="-1">
        <lane id="E0_0" index="0" speed="25.00" length="200.00" shape="0.00,-14.40 200.00,-14.40"/>
        <lane id="E0_1" index="1" speed="25.00" length="200.00" shape="0.00,-11.20 200.00,-11.20"/>
        <lane id="E0_2" index="2" speed="25.00" length="200.00" shape="0.00,-8.00 200.00,-8.00"/>
        <lane id="E0_3" index="3" speed="25.00" length="200.00" shape="0.00,-4.80 200.00,-4.80"/>
        <lane id="E0_4" index="4" speed="25.00" length="200.00" shape="0.00,-1.60 200.00,-1.60"/>
    </edge>
    <edge id="E1" from="J2" to="J3" priority="-1">
        <lane id="E1_0" index="0" speed="25.00" length="200.00" shape="200.00,-14.40 400.00,-14.40"/>
        <lane id="E1_1" index="1" speed="25.00" length="200.00" shape="200.00,-11.20 400.00,-11.20"/>
        <lane id="E1_2" index="2" speed="25.00" length="200.00" shape="200.00,-8.00 400.00,-8.00"/>
        <lane id="E1_3" index="3" speed="25.00" length="200.00" shape="200.00,-4.80 400.00,-4.80"/>
        <lane id="E1_4" index="4" speed="25.00" length="200.00" shape="200.00,-1.60 400.00,-1.60"/>
    </edge>
    <edge id="E2" from="J3" to="J4" priority="-1">
        <lane id="E2_0" index="0" speed="25.00" length="200.00" shape="400.00,-14.40 600.00,-14.40"/>
        <lane id="E2_1" index="1" speed="25.00" length="200.00" shape="400.00,-11.20 600.00,-11.20"/>
        <lane id="E2_2" index="2" speed="25.00" length="200.00" shape="400.00,-8.00 600.00,-8.00"/>
        <lane id="E2_3" index="3" speed="25.00" length="200.00" shape="400.00,-4.80 600.00,-4.80"/>
        <lane id="E2_4" index="4" speed="25.00" length="200.00" shape="400.00,-1.60 600.00,-1.60"/>
    </edge>
    <edge id="E3" from="J4" to="J5" priority="-1">
        <lane id="E3_0" index="0" speed="25.00" length="200.00" shape="600.00,-14.40 800.00,-14.40"/>
        <lane id="E3_1" index="1" speed="25.00" length="200.00" shape="600.00,-11.20 800.00,-11.20"/>
        <lane id="E3_2" index="2" speed="25.00" length="200.00" shape="600.00,-8.00 800.00,-8.00"/>
        <lane id="E3_3" index="3" speed="25.00" length="200.00" shape="600.00,-4.80 800.00,-4.80"/>
        <lane id="E3_4" index="4" speed="25.00" length="200.00" shape="600.00,-1.60 800.00,-1.60"/>
    </edge>
    <edge id="E4" from="J5" to="J6" priority="-1">
        <lane id="E4_0" index="0" speed="25.00" length="200.00" shape="800.00,-14.40 1000.00,-14.40"/>
        <lane id="E4_1" index="1" speed="25.00" length="200.00" shape="800.00,-11.20 1000.00,-11.20"/>
        <lane id="E4_2" index="2" speed="25.00" length="200.00" shape="800.00,-8.00 1000.00,-8.00"/>
        <lane id="E4_3" index="3" speed="25.00" length="200.00" shape="800.00,-4.80 1000.00,-4.80"/>
        <lane id="E4_4" index="4" speed="25.00" length="200.00" shape="800.00,-1.60 1000.00,-1.60"/>
    </edge>

    <junction id="J1" type="dead_end" x="0.00" y="0.00" incLanes="" intLanes="" shape="0.00,0.00 0.00,-16.00"/>
    <junction id="J2" type="priority" x="200.00" y="0.00" incLanes="E0_0 E0_1 E0_2 E0_3 E0_4" intLanes=":J2_0_0 :J2_0_1 :J2_0_2 :J2_0_3 :J2_0_4" shape="200.00,0.00 200.00,-16.00 200.00,0.00">
        <request index="0" response="00000" foes="00000" cont="0"/>
        <request index="1" response="00000" foes="00000" cont="0"/>
        <request index="2" response="00000" foes="00000" cont="0"/>
        <request index="3" response="00000" foes="00000" cont="0"/>
        <request index="4" response="00000" foes="00000" cont="0"/>
    </junction>
    <junction id="J3" type="priority" x="400.00" y="0.00" incLanes="E1_0 E1_1 E1_2 E1_3 E1_4" intLanes=":J3_0_0 :J3_0_1 :J3_0_2 :J3_0_3 :J3_0_4" shape="400.00,0.00 400.00,-16.00 400.00,0.00">
        <request index="0" response="00000" foes="00000" cont="0"/>
        <request index="1" response="00000" foes="00000" cont="0"/>
        <request index="2" response="00000" foes="00000" cont="0"/>
        <request index="3" response="00000" foes="00000" cont="0"/>
        <request index="4" response="00000" foes="00000" cont="0"/>
    </junction>
    <junction id="J4" type="priority" x="600.00" y="0.00" incLanes="E2_0 E2_1 E2_2 E2_3 E2_4" intLanes=":J4_0_0 :J4_0_1 :J4_0_2 :J4_0_3 :J4_0_4" shape="600.00,0.00 600.00,-16.00 600.00,0.00">
        <request index="0" response="00000" foes="00000" cont="0"/>
        <request index="1" response="00000" foes="00000" cont="0"/>
        <request index="2" response="00000" foes="00000" cont="0"/>
        <request index="3" response="00000" foes="00000" cont="0"/>
        <request index="4" response="00000" foes="00000" cont="0"/>
    </junction>
    <junction id="J5" type="priority" x="800.00" y="0.00" incLanes="E3_0 E3_1 E3_2 E3_3 E3_4" intLanes=":J5_0_0 :J5_0_1 :J5_0_2 :J5_0_3 :J5_0_4" shape="800.00,0.00 800.00,-16.00 800.00,0.00">
        <request index="0" response="00000" foes="00000" cont="0"/>
        <request index="1" response="00000" foes="00000" cont="0"/>
        <request index="2" response="00000" foes="00000" cont="0"/>
        <request index="3" response="00000" foes="00000" cont="0"/>
        <request index="4" response="00000" foes="00000" cont="0"/>
    </junction>
    <junction id="J6" type="dead_end" x="1000.00" y="0.00" incLanes="E4_0 E4_1 E4_2 E4_3 E4_4" intLanes="" shape="1000.00,-16.00 1000.00,0.00"/>

    <connection from="E0" to="E1" fromLane="0" toLane="0" via=":J2_0_0" dir="s" state="M"/>
    <connection from="E0" to="E1" fromLane="1" toLane="1" via=":J2_0_1" dir="s" state="M"/>
    <connection from="E0" to="E1" fromLane="2" toLane="2" via=":J2_0_2" dir="s" state="M"/>
    <connection from="E0" to="E1" fromLane="3" toLane="3" via=":J2_0_3" dir="s" state="M"/>
    <connection from="E0" to="E1" fromLane="4" toLane="4" via=":J2_0_4" dir="s" state="M"/>
    <connection from="E1" to="E2" fromLane="0" toLane="0" via=":J3_0_0" dir="s" state="M"/>
    <connection from="E1" to="E2" fromLane="1" toLane="1" via=":J3_0_1" dir="s" state="M"/>
    <connection from="E1" to="E2" fromLane="2" toLane="2" via=":J3_0_2" dir="s" state="M"/>
    <connection from="E1" to="E2" fromLane="3" toLane="3" via=":J3_0_3" dir="s" state="M"/>
    <connection from="E1" to="E2" fromLane="4" toLane="4" via=":J3_0_4" dir="s" state="M"/>
    <connection from="E2" to="E3" fromLane="0" toLane="0" via=":J4_0_0" dir="s" state="M"/>
    <connection from="E2" to="E3" fromLane="1" toLane="1" via=":J4_0_1" dir="s" state="M"/>
    <connection from="E2" to="E3" fromLane="2" toLane="2" via=":J4_0_2" dir="s" state="M"/>
    <connection from="E2" to="E3" fromLane="3" toLane="3" via=":J4_0_3" dir="s" state="M"/>
    <connection from="E2" to="E3" fromLane="4" toLane="4" via=":J4_0_4" dir="s" state="M"/>
    <connection from="E3" to="E4" fromLane="0" toLane="0" via=":J5_0_0" dir="s" state="M"/>
    <connection from="E3" to="E4" fromLane="1" toLane="1" via=":J5_0_1" dir="s" state="M"/>
    <connection from="E3" to="E4" fromLane="2" toLane="2" via=":J5_0_2" dir="s" state="M"/>
    <connection from="E3" to="E4" fromLane="3" toLane="3" via=":J5_0_3" dir="s" state="M"/>
    <connection from="E3" to="E4" fromLane="4" toLane="4" via=":J5_0_4" dir="s" state="M"/>

    <connection from=":J2_0" to="E1" fromLane="0" toLane="0" dir="s" state="M"/>
    <connection from=":J2_0" to="E1" fromLane="1" toLane="1" dir="s" state="M"/>
    <connection from=":J2_0" to="E1" fromLane="2" toLane="2" dir="s" state="M"/>
    <connection from=":J2_0" to="E1" fromLane="3" toLane="3" dir="s" state="M"/>
    <connection from=":J2_0" to="E1" fromLane="4" toLane="4" dir="s" state="M"/>
    <connection from=":J3_0" to="E2" fromLane="0" toLane="0" dir="s" state="M"/>
    <connection from=":J3_0" to="E2" fromLane="1" toLane="1" dir="s" state="M"/>
    <connection from=":J3_0" to="E2" fromLane="2" toLane="2" dir="s" state="M"/>
    <connection from=":J3_0" to="E2" fromLane="3" toLane="3" dir="s" state="M"/>
    <connection from=":J3_0" to="E2" fromLane="4" toLane="4" dir="s" state="M"/>
    <connection from=":J4_0" to="E3" fromLane="0" toLane="0" dir="s" state="M"/>
    <connection from=":J4_0" to="E3" fromLane="1" toLane="1" dir="s" state="M"/>
    <connection from=":J4_0" to="E3" fromLane="2" toLane="2" dir="s" state="M"/>
    <connection from=":J4_0" to="E3" fromLane="3" toLane="3" dir="s" state="M"/>
    <connection from=":J4_0" to="E3" fromLane="4" toLane="4" dir="s" state="M"/>
    <connection from=":J5_0" to="E4" fromLane="0" toLane="0" dir="s" state="M"/>
    <connection from=":J5_0" to="E4" fromLane="1" toLane="1" dir="s" state="M"/>
    <connection from=":J5_0" to="E4" fromLane="2" toLane="2" dir="s" state="M"/>
    <connection from=":J5_0" to="E4" fromLane="3" toLane="3" dir="s" state="M"/>
    <connection from=":J5_0" to="E4" fromLane="4" toLane="4" dir="s" state="M"/>

</net>
